29
Energy =  -3721.28617000 au
  C     -1.26401635      3.42046376      2.29839334
  C      0.01345859      3.00895558      1.48744277
  N     -0.40911200      2.41003393      0.16487622
  H      0.58431094      2.28179500      2.09394527
  H      0.68913274      3.87569154      1.32875456
  O     -2.31559835      2.87153743      1.93201128
  O     -1.09064357      4.21639105      3.23812218
  C     -0.66703798      3.48405568     -0.86655820
  C      0.59938295      4.35702755     -1.22058086
  H     -1.47861061      4.15184443     -0.52134567
  H     -1.00501212      2.99898080     -1.81485551
  C      0.62421472      1.38969265     -0.35825178
  C     -0.82614284     -0.11951985     -1.72756379
  H      1.42686275      1.24456400      0.38738432
  H      1.03313841      1.74200018     -1.33585183
  O     -1.26645069     -1.26082273     -1.65823880
  O     -0.83715513      0.80862431     -2.52248024
  O      0.34178093      5.41144820     -1.81303132
  O      1.69806437      3.88768456     -0.87049954
  H     -1.32887542      1.89641314      0.34019663
  O      1.75655350     -1.80376561     -0.05340661
  H      1.75462334     -0.96051529     -0.51006013
  H      0.72726059     -1.98532140      0.04403511
  O     -0.03286036      0.15604596     -0.47664758
  H     -0.41198130     -2.42111699      0.55853800
  H     -0.49203210     -2.47239315     -0.21491572
  O      0.98291825      5.80441602      3.84963741
  H      0.17496457      5.21421035      3.84678284
  H      1.16672681      5.91924921      2.92176264
