31
Energy =  -3745.54096000 au
  C     -2.04317002      2.70937307      0.50167723
  C     -0.82501372      3.52868025      0.12457004
  N      0.39611649      2.73686156      0.36641281
  H     -0.80379421      4.47574466      0.73928242
  H     -0.90275717      3.86923174     -0.93665001
  O     -2.16130207      1.54490336      0.80022114
  O     -3.14622395      3.52324426      0.45844555
  H     -3.98572841      3.04483173      0.70452716
  C      1.30392339      3.18166951      1.32804471
  C      2.54129076      2.27949448      1.58882562
  H     -0.65386915      0.67574341      2.18668136
  H     -2.62682061      3.26383058      3.16061654
  C      0.75762029      1.75465936     -0.66417319
  C      1.54306615      2.33262149     -1.81599129
  H     -0.16431524      1.22816158     -1.05196910
  H      1.32980556      0.88682475     -0.20742062
  O      1.85088145      1.81360781     -2.85752356
  O      1.93759570      3.62981468     -1.55916219
  H      2.48277133      4.01007783     -2.30265681
  O      3.73093276      2.89125747      1.44539575
  O      2.49069991      1.12711332      1.93208977
  H      3.70665011      3.92125761      1.24702410
  O      1.10537821      4.17102427      2.00691531
  H     -1.88437307      3.43523096      3.09705183
  H     -0.70353225      0.66644657      2.95328226
  O     -0.27606286     -0.51729003      0.20442222
  H     -0.74506464      0.00192577      0.90730876
  H     -0.46394797     -1.43440443      0.34427378
  O      4.70309338      5.20221794      1.43573762
  H      4.58289653      5.50082778      2.34686552
  H      5.54642034      4.72435373      1.42227005
