32
Energy =  -3752.58049000 au
  C      8.77694812      6.11141494      2.70626022
  C      7.94816748      4.97907681      2.12658909
  N      6.97390861      4.39140981      3.07779659
  H      8.63472491      4.18678140      1.71534102
  H      7.37292388      5.34551017      1.21491155
  O      8.47333442      6.86744794      3.59563933
  O      9.95729587      6.16464636      2.04932423
  H     10.54031831      6.93141095      2.36344000
  C      6.58747796      3.00294494      2.76177263
  C      5.52991367      2.97589929      1.61849180
  H      6.16687259      2.46368845      3.64614800
  H      7.46429760      2.37921038      2.45762212
  C      6.39254339      5.07215016      4.01693535
  C      1.86216197      5.94280289      4.38612350
  H      6.63267175      6.13714160      4.23607967
  H      5.62584710      4.64338541      4.68333567
  O      0.74227326      6.27469589      4.45122068
  O      1.94510150      4.72762447      0.89210202
  H      1.54946348      4.01418582      1.40587148
  O      5.30722424      4.10312404      1.06589591
  H      4.11231894      4.15099627      0.17790383
  O      5.00331838      1.90386999      1.36058612
  H      3.56462110      4.67563468     -0.41156580
  O      2.98310891      5.60840113      4.31174377
  H      3.41014386      3.82470695     -0.44799156
  H      1.34652654      5.48341544      1.03114763
  O     -0.25538596      5.29356764      2.03942804
  H     -1.09835887      5.14736461      1.60669261
  H     -0.43609986      5.76693532      2.85573870
  O      3.53128520      2.10905943     -0.83457384
  H      4.03094899      1.63893626     -0.13346990
  H      3.11320408      1.45614472     -1.38391514
