30
Energy =  -3735.03870000 au
  C      1.49454390      2.95538132      0.78276748
  C      1.06278209      3.48729949     -0.58402934
  N      1.83110996      4.65664651     -1.09826134
  H     -0.01764384      3.76024461     -0.54326118
  H      1.14872107      2.66549002     -1.33253630
  O      1.56220030      3.84060445      1.72919026
  O      1.76687201      1.75643821      0.94102866
  H      3.18649415      1.17250976      1.72339441
  C      1.47839281      5.88926812     -0.32782476
  C      1.96637333      7.12370739     -1.07964277
  H      1.87503422      5.87035003      0.72295783
  H      0.36944258      5.95187353     -0.24128002
  C      3.29947146      4.41316188     -1.17428148
  C      4.11272520      4.51312455      0.12400437
  H      3.70476779      5.17207444     -1.88659462
  H      3.47633401      3.41789865     -1.63761607
  O      4.72789508      3.51028502      0.55326156
  O      4.16843020      5.62970994      0.73106738
  O      3.21865539      7.54415618     -0.78306620
  H      3.72817745      6.90029256     -0.09913509
  O      1.31380508      7.77176955     -1.86765853
  O      5.02458460      4.63963720      2.96670675
  H      4.68723140      5.40485510      2.39771095
  H      5.27946333      3.99155799      2.24398311
  O      3.01528007      3.20626878      3.66756943
  H      2.20120411      3.49414020      2.79075771
  H      3.77216109      3.94338535      3.49137293
  O      4.06499832      1.39396626      2.15500735
  H      4.47705516      2.01291638      1.49316566
  H      3.45827935      2.37022334      3.17008234
