23
	Energy:      26.2407222
C         -5.49177        1.96827       -0.33206
C         -4.20295        1.53593        0.33295
N         -2.98113        2.14978       -0.26083
H         -4.17819        0.43036        0.23962
H         -4.25781        1.77008        1.42025
O         -5.48471        2.72412       -1.29317
O         -6.66405        1.48756        0.13283
H         -7.50504        1.73757       -0.27565
C         -2.89934        3.58620        0.12918
C         -1.89004        4.38444       -0.67390
H         -2.65506        3.67372        1.21215
H         -3.87256        4.09628       -0.02689
C         -1.76987        1.42753        0.22213
C         -1.58875        0.05254       -0.39219
H         -1.80089        1.33045        1.33109
H         -0.84601        1.98868       -0.02935
O         -2.36803       -0.36841       -1.23307
O         -0.53840       -0.71181       -0.02673
H          0.10115       -0.40328        0.63044
O         -1.70748        5.69478       -0.40801
H         -2.20340        6.13715        0.29517
O         -1.25228        3.86515       -1.57677
H         -3.03173        2.07829       -1.30540
