22
	Energy:      23.5559937
C         -5.45493        1.95749       -0.35629
C         -4.21168        1.56779        0.40155
N         -2.98578        2.16972       -0.17999
H         -4.16605        0.45816        0.36313
H         -4.31760        1.85935        1.47105
O         -5.38761        2.66842       -1.34891
O         -6.65338        1.49791        0.06102
H         -7.46884        1.72836       -0.40684
C         -2.88664        3.60178        0.19797
C         -1.95089        4.36820       -0.70736
H         -2.55272        3.70202        1.25576
H         -3.87350        4.10439        0.11276
C         -1.78295        1.43188        0.28102
C         -1.59907        0.12403       -0.45224
H         -1.83890        1.24403        1.37719
H         -0.85946        2.02019        0.09230
O         -2.37503       -0.21151       -1.33385
O         -0.55730       -0.67786       -0.14798
H          0.07649       -0.43550        0.54182
O         -1.73816        5.68412       -0.49723
H         -2.16975        6.15094        0.23216
O         -1.39446        3.81404       -1.64281
