22
	Energy:      25.8364745
C         -5.49119        1.96904       -0.33218
C         -4.20234        1.53646        0.33261
N         -2.98043        2.14974       -0.26161
H         -4.17802        0.43086        0.23970
H         -4.25686        1.77100        1.41985
O         -5.48410        2.72434       -1.29373
O         -6.66353        1.48923        0.13346
H         -7.50457        1.73960       -0.27471
C         -2.89840        3.58640        0.12774
C         -1.89058        4.38210       -0.67315
H         -2.65465        3.67495        1.21071
H         -3.87111        4.09713       -0.02920
C         -1.76928        1.42741        0.22153
C         -1.58882        0.05184       -0.39171
H         -1.79998        1.33126        1.33058
H         -0.84531        1.98800       -0.03085
O         -2.36843       -0.36947       -1.23212
O         -0.53872       -0.71262       -0.02585
H          0.10105       -0.40384        0.63100
O         -1.71784        5.68946       -0.40202
O         -1.25071        3.86766       -1.57727
H         -3.03109        2.07771       -1.30617
